[TITLE]
; Converted from EPA SWMM to EPANET skeleton
; Review hydraulics carefully before use.

[OPTIONS]
UNITS          LPS
HEADLOSS       D-W
HYDRAULICS     NONE
QUALITY        NONE
TRIALS         40
ACCURACY       0.001

[JUNCTIONS]
;ID               Elevation      Demand
4900393            7.72           0
616539             20.75          0
616513             13.3           0
616509             11.25          0
616506             11.09          0
616500             10.43          0
269559             9.13           0
269561             10.18          0
616488             9.7            0
616486             6.13           0
161271             12.63          0
1125354            6.99           0
197246             10.57          0
197267             8.73           0
201001             8.5            0
265049             7.29           0
218848             9.1            0
218722             9.43           0
1055813            10.24          0
1055817            10.66          0
1055815            10.54          0
1055811            10.65          0
1043919            10.3           0
1020663            9.72           0
1043911            11             0
1036798            11.32          0
1036792            12.38          0
1036784            12.76          0
1036762            12.44          0
740958             10.51          0
1125277            11.21          0
741007             10.51          0
1015884            8.42           0
741005             10.91          0
1125327            11.13          0
809812             9.27           0
1057422            8.18           0
1064067            10.6           0
1118763            10.62          0
1070004            11.97          0
1057436            6.6            0
1057426            7.86           0
757804             12.26          0
757793             12.23          0
1070007            12.28          0
1070014            11.96          0
1070001            12.31          0
1070173            13.34          0
1117644            12.71          0
1043477            14.45          0
753936             13.32          0
1122973            9.56           0
1122965            13.65          0
251004             13.76          0
251079             13.17          0
251101             13.22          0
251089             13.21          0
251084             13.09          0
252268             12.4           0
252139             12.54          0
252149             12.45          0
251075             12.49          0
1430413            12.25          0
343786             13.58          0
217550             12.02          0
217800             12.49          0
343790             13.96          0
343782             13.85          0
343819             13.81          0
343750             13.95          0
227928             13.7           0
227968             13.75          0
218717             11.27          0
218877             11.5           0
227884             12.21          0
227874             12.99          0
228061             13.61          0
228065             13.4           0
252192             12.41          0
252237             12.32          0
236162             13.24          0
236049             12.53          0
236069             13             0
227832             13.01          0
228107             13.7           0
228030             13.52          0
228011             12.86          0
227816             12.8           0
224492             12.42          0
218843             7.38           0
218804             6.12           0
218774             7.09           0
1774492            11.84          0
1578174            12.06          0
1577989            13.15          0
1578003            12.97          0
277284             6.07           0
1348623            10.8           0
277278             5.88           0
271256             1.22           0
1290548            10.32          0
1275272            9.06           0
1300518            9.92           0
1367892            9.38           0
269563             10.3           0
269528             6.84           0
269507             6.76           0
261268             10.74          0
252973             -1.62          0
1833408            9.16           0
624613             11.28          0
1122959            12.75          0
1902718            16.12          0
1902697            15.08          0
2031740            5.21           0
1738556            12.03          0
809821             10.27          0
269481             2.69           0
161640             16.23          0
161609             17.11          0
161651             17.21          0
161643             17.71          0
161250             18             0
598793             10.68          0
614914             10.8           0
477615             10.48          0
477529             10.65          0
477488             10.69          0
477440             10.78          0
261201             10.5           0
261346             11.09          0
259364             11.06          0
322700             10.71          0
261175             10.7           0
261312             10.24          0
261293             10.25          0
259369             10.84          0
259379             11.38          0
259410             11.19          0
259309             10.95          0
678972             11.07          0
678956             10.98          0
678932             11.2           0
261197             10.56          0
261182             10.8           0
261184             10.4           0
271663             10.5           0
271668             9.85           0
261235             11.1           0
271702             8.85           0
271657             9.65           0
203029             12.55          0
203074             12.36          0
201017             10.43          0
201094             11.37          0
271592             8.54           0
269452             11.5           0
215635             6.23           0
215631             6.36           0
197043             9.7            0
215683             6.68           0
215659             7.35           0
215655             9.32           0
215649             6.08           0
211267             12.17          0
211272             12.18          0
203037             13.11          0
202950             12.88          0
202905             11.97          0
202897             10.91          0
202889             10.8           0
202824             13             0
201007             10.89          0
203016             12.28          0
203002             12.3           0
200813             11.86          0
197258             11.81          0
197027             9.12           0
197218             10.53          0
197225             10.88          0
197213             10.47          0
203057             12.32          0
203024             12.6           0
203060             12.4           0
203071             12.55          0
203022             12.7           0
203000             12.6           0
202903             11.8           0
202817             13             0
197243             11.9           0
197332             12.07          0
197033             9.02           0
197059             10.4           0
161462             15.64          0
161240             14.68          0
161080             17.07          0
161629             15.16          0
161083             17.1           0
614912             10.87          0
614910             8              0
254160             11.91          0
254091             10.59          0
253089             10.8           0
253098             10.4           0
251638             12.04          0
254195             10.38          0
253083             7.68           0
253071             12.81          0
251759             12.57          0
251701             11.5           0
251145             12.74          0
251140             12.76          0
254155             11.5           0
738136             19.02          0
251280             8.95           0
254161             10.02          0
254146             9.92           0
251016             11.05          0
254110             9.07           0
254165             10.69          0
254150             9.61           0
253040             5.69           0
251161             10.16          0
251271             9.6            0
251538             10.03          0
251293             6.63           0
1833383            10.27          0
1064062            5.67           0
265027             2.26           0
265022             2.61           0
224395             5.35           0
1122969            8.77           0
251982             8.27           0
251026             9.72           0
252198             11.15          0
251094             11.73          0
251952             8.9            0
251989             8.02           0
252247             11.73          0
236038             11.9           0
227905             11.63          0
227969             12.75          0
235987             9.5            0
227861             10.2           0
227865             9.57           0
227869             9.14           0
228050             11.5           0
227821             11.33          0
227993             11.21          0
236042             11.14          0
217898             10.45          0
227988             11.59          0
228009             11.83          0
227857             11.2           0
218205             8.3            0
218689             4.7            0
1122963            12.06          0
161610             16.74          0
161646             16.82          0
161253             17.13          0
1901255            3.86           0
1901262            5.48           0
1064060            8.28           0
252110             7.4            0
252107             7.41           0
271224             0.85           0
252960             1.93           0
254128             9.15           0
708142             4.6            0
254094             8.55           0
161078             10.58          0
1920978            13.07          0
161248             17.56          0
259408             10.37          0
1578149            14.66          0
1577868            12.67          0
1577873            12.53          0
617772             20.48          0
501108             17.32          0
177180             14.36          0
501027             17.67          0
1015895            7.39           0
1043930            7.84           0
1043936            7.1            0
583939             8.72           0
261210             7.57           0
259305             7.59           0
259295             8.79           0
322690             8.7            0
261147             6.65           0
261151             6.09           0
261149             6.55           0
1125299            7.31           0
203063             10.75          0
2031736            3.42           0
740969             8.09           0
809819             7.84           0
271658             9.21           0
200748             10.14          0
202838             10.99          0
1577899            12.18          0
161074             11.57          0
1426328            8.83           0
200472             5.43           0
202874             8.54           0
197195             8.86           0
271647             6.23           0
161234             12.24          0
161105             14.69          0
271585             5.93           0
271560             7.19           0
215619             4.13           0
224137             7              0
224225             6.36           0
211141             10.65          0
197168             7.46           0
196912             6.02           0
196884             6.74           0
215613             4.86           0
215607             5.72           0
215603             5.93           0
211147             9.61           0
202844             10.58          0
202890             9.5            0
200999             9.1            0
200753             8.83           0
201101             10.21          0
197259             9.38           0
201058             11.19          0
196932             5.76           0
197216             9.97           0
197210             7.98           0
203025             11.93          0
202989             11.7           0
203017             11.88          0
202979             9.07           0
202878             8.33           0
192609             5.37           0
192604             5.49           0
1300516            9.67           0
1300524            9.45           0
259310             10.71          0
259287             10.33          0
598794             10.43          0
583930             7.43           0
583928             7.98           0
259303             7.98           0
259293             8.92           0
259299             8.7            0
322693             8.47           0
259301             8.4            0
259385             9.79           0
259416             10.03          0
259414             10.07          0
261334             10.73          0
261322             10.05          0
261310             9.8            0
259354             9.27           0
259370             10.43          0
259330             10.76          0
261269             10.08          0
458755             6.62           0
455714             9.35           0
261204             10.02          0
261202             10.2           0
455719             9.88           0
455721             9.56           0
455715             8.65           0
261185             10.14          0
261189             10.11          0
261338             9.04           0
261341             8.94           0
261327             8.4            0
1785735            20.53          0
1785737            20.38          0
1785739            20.73          0
1785744            20.65          0
1785748            20             0
1785752            19.22          0
1785755            18.75          0
1785757            18.33          0
1785759            17.9           0
1774523            14.29          0
1577970            14.84          0
1577981            13.54          0
1577983            14.7           0
1577985            13.4           0
1578120            14.54          0
1578121            14.1           0
1578125            14.97          0
1578131            13.66          0
1578133            14.51          0
1578144            13.22          0
1578157            13.72          0
1578164            14.01          0
177185             13.09          0
261314             9.09           0
261370             9.39           0
614915             10.63          0
477467             9.97           0
1833327            12.96          0
252937             5.17           0
254188             6.74           0
252998             4.74           0
254214             5.17           0
254207             5.61           0
1901260            5.99           0
1901248            6.65           0
1901250            6.22           0
1901259            7.23           0
1064058            8.57           0
1020665            8.45           0
1020682            8.19           0
1020672            7.51           0
1020680            8.56           0
1020678            9.01           0
1043959            4.61           0
1626972            10.18          0
1626988            8.88           0
254171             11.41          0
253074             10.7           0
251455             11.45          0
1412981            11.71          0
253042             5.42           0
251683             10.65          0
616592             20.13          0
616602             18.99          0
616608             18.19          0
616604             18.74          0
616610             17.89          0
501117             16.16          0
501123             15.47          0
343732             12.56          0
343724             13.84          0
343766             12.92          0
227837             13.48          0
343753             13.77          0
343728             12.86          0
227825             10.97          0
343760             13.18          0
236020             10.64          0
236070             12.79          0
1117641            11.37          0
236032             11.1           0
236031             11.58          0
277209             12.2           0
1070174            13.02          0
753931             13             0
236044             10.72          0
753938             11.62          0
753934             11.75          0
753940             11.48          0
753942             11.36          0
236149             13.42          0
491942             13.47          0
236027             10.09          0
235998             11.58          0
236001             11.26          0
253028             6.69           0
251275             9.3            0
251273             9.44           0
251269             9.96           0
251153             11.44          0
251717             11.67          0
251750             10.54          0
251735             11.02          0
251677             11.11          0
251148             12.04          0
1360016            9.98           0
1360024            9.74           0
831732             10.88          0
831704             12.26          0
831679             12.1           0
236011             12.34          0
252194             12.04          0
236046             10.52          0
236054             11.44          0
235959             11.28          0
235962             11.19          0
236058             12.6           0
236036             12.48          0
235974             10.54          0
236014             12.01          0
235978             10.17          0
1021727            14.01          0
1122976            9.01           0
1122978            8.87           0
1122960            12.64          0
354687             11.94          0
477595             9.84           0
614919             10.75          0
614918             11.15          0
477496             10.33          0
583937             9.63           0
477624             10.02          0
477607             10.35          0
477530             10.32          0
477442             10.66          0
501115             16.44          0
501110             17             0
322687             9.07           0
445463             9.16           0
445480             9.66           0
322675             8.62           0
322698             10.7           0
477533             9.32           0
445486             9.39           0
1020661            8.98           0
1015889            7.82           0
458746             6.99           0
458744             7.43           0
583922             8.83           0
455723             8.6            0
455729             7.9            0
1125362            6.87           0
261221             6.41           0
261218             6.7            0
1125275            11.06          0
261216             6.96           0
2047645            11.56          0
2031749            4.25           0
215623             3.61           0
201028             11.6           0
1725414            10.18          0
1725416            11.24          0
1670790            8.38           0
271627             7.54           0
1670776            9.65           0
1670781            10.38          0
1670788            8.79           0
1412248            8.81           0
1412195            10.85          0
1412203            10.4           0
252252             11.51          0
177183             13.34          0
501037             17.06          0
1492181            22.74          0
1300514            10.06          0
501096             19.53          0
616594             19.88          0
1319671            11.99          0
261212             7.3            0
501087             21.3           0
616590             20.26          0
1412126            9.58           0
1412674            9.46           0
740961             10.1           0
1319669            11.14          0
1319672            11.32          0
1319674            10.88          0
1319395            11.84          0
1319397            11.44          0
1319457            11.91          0
1319459            11.55          0
1319468            11.81          0
1319471            10.38          0
1319473            9.87           0
1275258            9.11           0
1275260            8.65           0
1275264            11.54          0
1275265            10.11          0
1275273            8.67           0
1275276            7.81           0
1275278            7.45           0
1275280            7.09           0
741044             10.53          0
740959             10.34          0
251045             11.55          0
251020             10.55          0
251049             9.89           0
251458             10.7           0
251460             9.94           0
254096             8.02           0
251018             10.79          0
251633             11.59          0
252116             8.89           0
252126             9.09           0
252118             8.69           0
252120             8.19           0
251635             11.21          0
251561             10.97          0
251551             11.34          0
251502             10.33          0
252124             9.8            0
252132             11.14          0
252131             11.65          0
251012             12.65          0
251006             13.51          0
252970             0.41           0
1043972            3.31           0
1043953            5.16           0
252953             2.37           0
809959             4.74           0
741003             10.38          0
261347             10.95          0
261366             9.78           0
261358             10.32          0
678966             10.16          0
678957             10.55          0
227811             12.41          0
227813             11.52          0
215629             3.02           0
224484             6.48           0
224481             8.37           0
227827             10.86          0
223229             9.53           0
1123012            8.23           0
1123002            8.31           0
1123007            10.95          0
1123009            9.38           0
1122995            8.55           0
1122989            8.61           0
1122985            8.67           0
1122982            10.32          0
222991             10.7           0
223104             10.54          0
1833406            9.81           0
251113             12.27          0
1627001            10.93          0
809841             5.26           0
251024             9.8            0
251975             8.71           0
251963             8.46           0
251090             12.98          0
251086             11.96          0
251067             11.37          0
251098             11.34          0
1020692            5.26           0
1057433            5.96           0
1057427            7.5            0
271236             0.6            0
252963             0.44           0
254184             7.15           0
253011             7.72           0
708136             8.44           0
708135             11.21          0
254122             8.48           0
254130             8.85           0
253007             8.27           0
253018             10.33          0
708140             8.21           0
251462             9.25           0
254098             7.24           0
251080             12.89          0
252161             11.51          0
252145             11.94          0
252141             12.07          0
251035             9.12           0
251076             12.11          0
251062             11.98          0
251109             13.4           0
251106             13.53          0
1070019            11.3           0
1070015            11.73          0
1070022            10.26          0
1070008            11.96          0
251938             11.14          0
678935             10.82          0
678927             11.03          0
678980             10.11          0
192598             5.69           0
161648             15.77          0
161622             14.89          0
161617             15.94          0
161269             14.44          0
161266             14.44          0
501083             22.64          0
501094             19.92          0
1069092            20.64          0
1891257            14.26          0
1036799            10.71          0
1036780            9.1            0
1036795            10.97          0
1036785            11.73          0
1036787            11.01          0
1036767            10.92          0
1036763            11.84          0
1055820            9.47           0
1043923            9.83           0
1043925            9.52           0
1036805            9.45           0
1036802            10.41          0
1043934            7.36           0
1043932            7.47           0
1043927            9.39           0
1043940            6.78           0
501010             20.95          0
501092             20.32          0
501089             20.8           0
501098             19.09          0
501102             18.31          0
501100             18.68          0
501057             14.92          0
501055             15.09          0
501053             15.27          0
501045             16.04          0
501041             16.47          0
501035             16.85          0
501031             17.32          0
501029             17.65          0
501020             18.36          0
501014             19.73          0
501012             20.29          0
1774522            14.58          0
1902702            14.85          0
1902704            14.56          0
1902714            13.42          0
1902716            13.31          0
1902725            13.93          0
1902727            13.67          0
1891293            17.29          0
253090             9.7            0
253034             6.16           0
254152             9.27           0
254115             8.65           0
254072             6.95           0
254127             11.55          0
253072             12.37          0
253060             6.3            0
253062             6.16           0
253068             5.62           0
253066             5.81           0
253064             5.96           0
253057             11.42          0
253054             5.17           0
253032             6.42           0
253030             6.53           0
251286             8.82           0
251645             11.58          0
251663             12.14          0
251575             10.27          0
757764             11.56          0
757797             11.94          0
757794             11.63          0
251942             10.55          0
757771             8.99           0
757789             9.21           0
616541             21.79          0
617776             21.66          0
616596             19.71          0
1225281            23.52          0
1069090            21.23          0
228043             12.27          0
227879             11.95          0
227863             9.7            0
227878             12.74          0
228052             11.29          0
228071             13.41          0
228062             13.08          0
228039             12.37          0
228015             10.83          0
227876             12.7           0
218902             10.87          0
252242             12.1           0
244882             12.93          0
227893             10.77          0
227916             11.22          0
227895             10.55          0
218873             12.11          0
227950             12.28          0
227851             12.01          0
228031             13.15          0
228007             12.05          0
228005             12.42          0
227999             12.92          0
227901             12.31          0
227899             12.81          0
227819             11.81          0
227817             12.41          0
218216             8.01           0
218900             11.82          0
757767             10.78          0
396436             10.36          0
254070             7.22           0
254141             11.96          0
254134             10.64          0
254107             9.23           0
254064             7.27           0
252093             7.76           0
1057431            6.8            0
251104             14.09          0
1833404            10.19          0
251993             11.5           0
1833379            10.8           0
809839             5.56           0
265032             1.66           0
265024             2.48           0
218899             12.55          0
218685             7.18           0
218243             7.94           0
218735             7.32           0
218775             6.64           0
218738             6.07           0
218777             5.94           0
218731             8.23           0
218702             4.27           0
1021733            12.66          0
227848             13.65          0
343774             12.36          0
343741             12.11          0
1578150            14.13          0
1069088            21.81          0
1069087            22.44          0
1300512            10.24          0
1300511            10.84          0
161065             17.32          0
161243             18.3           0
1036790            11.35          0
741015             10.51          0
1125274            11.25          0
1015875            9.97           0
813600             11.13          0
1057424            8.42           0
197192             10.51          0
259291             9.42           0
1015877            8.55           0
1626966            11.51          0
1398451            10.83          0
1411801            11.8           0
1412980            11.84          0
1833372            13.06          0
1626999            12.06          0
1460192            14.18          0
1460220            14.02          0
1460227            14.19          0
1460241            13.93          0
1460252            14             0
1462635            13.22          0
1462648            13.65          0
1462651            13.69          0
1225165            13.95          0
1225172            14.17          0
1225181            13.83          0
1225189            14.07          0
1714374            10.91          0
251456             10.92          0
236076             11.83          0
1578058            12.68          0
1774481            14.49          0
1774487            14.24          0
1774515            13.96          0
1774539            14.36          0
1729928            14.14          0
1671277            13.49          0
1671282            13.68          0
1578032            13.81          0
1902766            14.85          0
200474             3.97           0
1578002            13.14          0
1578137            14.16          0
1578153            14.39          0
1412115            11.51          0
1412122            11.4           0
1319394            12.12          0
1319409            11.88          0
2047648            12.44          0
1738549            11.39          0
1725411            11.19          0
1715808            10.96          0
1670786            10.51          0
1412199            11.15          0
1485481            7.21           0
1426332            10.37          0
1200754            12.68          0
1200759            12.3           0
251992             12.08          0
1833402            12.81          0
1901253            7.45           0
192594             5.88           0
192583             5.91           0
197220             9.46           0
197248             9.77           0
197337             11.38          0
197209             8.18           0
197201             7.81           0
197184             6.91           0
197179             7              0
197166             8.44           0
202987             11.8           0
203009             10.99          0
203011             10.64          0
202991             11.4           0
202997             10.36          0
202983             8.83           0
202977             9.32           0
202887             11.06          0
202885             10.8           0
202814             9.3            0
202812             9.49           0
202810             10.01          0
197226             10.6           0
196866             8.95           0
201048             11.9           0
202820             12.56          0
202908             11.7           0
202822             12.1           0
202825             12.65          0
202827             12.45          0
203043             12.11          0
203030             12.26          0
202955             11.69          0
202804             12.47          0
203048             11.76          0
203040             12.36          0
203019             11.46          0
202957             11.48          0
202803             13.14          0
1318735            11.07          0
1318737            10.6           0
1200755            12.09          0
1200761            11.22          0
809815             8.7            0
252081             7.89           0
252029             11.22          0
251935             11.43          0
251932             12.01          0
235997             12.18          0
1888108            13.88          0
218910             4.98           0
235985             9.84           0
277192             10.34          0
227948             12.53          0
217553             11.47          0
218889             11.17          0
1043472            14.27          0
236158             12.34          0
1424737            13.11          0
1424739            12.95          0
1460194            13.72          0
1460225            13.65          0
1460246            12.93          0
1460253            13.65          0
1460256            13.48          0
1462646            12.26          0
1462653            12.67          0
227839             13.06          0
217842             10.96          0
227841             12.64          0
1225166            12.35          0
1225173            13.89          0
624620             12.17          0
1070010            11.32          0
271240             2.65           0
217551             11.78          0
624733             11.74          0
227914             11.4           0
616516             14.86          0
624614             13             0
227903             11.76          0
218862             11.53          0
227977             12.09          0
227946             13.23          0
218712             3.23           0
218879             11.29          0
218728             8.85           0
168460             8.34           0
161571             9.02           0
161579             8.65           0
168462             8.15           0
1920977            15.35          0
1920980            13.48          0
1920982            12.88          0
161557             9.6            0
176874             10.35          0
161550             9.82           0
269577             9.84           0
269591             9.19           0
269575             10.14          0
269568             10.4           0
215609             5.21           0
269487             5.65           0
271689             7              0
1774516            13.15          0
1902741            11.92          0
1412212            10.07          0
1412240            9.05           0
740971             7.62           0
261153             5.9            0
261155             5.49           0
271713             9.73           0
271712             10.84          0
271704             7.83           0
261160             5.06           0
809835             6.01           0
271687             7.22           0
271653             8.45           0
271637             6.92           0
271631             7.32           0
271622             7.93           0
271618             9.84           0
271614             10.33          0
271596             7.02           0
271593             7.56           0
271578             6.45           0
271572             6.72           0
269448             11.1           0
269447             11.69          0
265041             10.34          0
265039             10.91          0
265047             9.69           0
215621             3.82           0
211265             11.72          0
215586             11.25          0
215638             10.42          0
215652             7.6            0
215640             9.77           0
224280             6.09           0
215675             6.36           0
215665             6.79           0
211145             9.97           0
211136             11.11          0
215687             6.93           0
215660             6.93           0
215617             4.41           0
215615             4.59           0
211268             11.95          0
211262             12.73          0
211210             7.7            0
1015903            6.91           0
809833             6.57           0
809831             6.64           0
809829             6.75           0
809827             7.24           0
261224             6.19           0
261226             6.05           0
200746             10.94          0
200782             7.26           0
197229             9.98           0
1568083            10.87          0
1738569            11.13          0
1738571            10.94          0
1715793            8.56           0
1715792            9.24           0
1715800            8.04           0
1715802            7.88           0
1715806            7.54           0
1715814            7.19           0
271626             7.99           0
215592             9.09           0
202953             11.99          0
201141             11.17          0
215588             10.71          0
1426330            7.88           0
1426335            9.47           0
202971             10.07          0
1123014            8.08           0
215594             8.19           0
200864             9.93           0
200476             9              0
200478             9.73           0
211201             8.45           0
161562             9.39           0
161565             9.18           0
161577             8.86           0
176864             10.49          0
176862             10.63          0
176858             10.77          0
176852             10.97          0
176843             12.9           0
161072             15.39          0
473574             11.86          0
161066             16.93          0
1671280            13.32          0
1578052            13.06          0
1671284            12.94          0
177187             12.38          0
177189             11.86          0
1578041            13.67          0
1578044            12.89          0
161070             16.16          0
161232             14.38          0
161084             16.83          0
211208             7.82           0
211171             9.27           0
211176             8.98           0
212172             8.28           0
212170             8.67           0
211277             9.68           0
211160             10.53          0
211132             11.7           0
1057438            6.96           0
168458             8.5            0
200958             9.76           0
202871             8.61           0
197193             10.16          0
197284             7.95           0
271568             7.05           0
200806             11.59          0
200808             11.5           0
200875             9.66           0
200855             10.09          0
201095             11.2           0
201131             11.19          0
201103             9.91           0
201098             10.75          0
200751             9.69           0
200743             11.6           0
223991             7.33           0
212166             9.45           0
212168             9.04           0
212162             10.12          0
212158             11.09          0
212156             11.55          0
212153             12.53          0
223722             7.83           0
1123024            7.82           0
757800             12.32          0
1070017            12.13          0
1021732            13.69          0
197204             7.54           0
196873             8.79           0
196821             10.27          0
196857             9.59           0
196863             9.27           0
197055             9.63           0
202863             9.39           0
202859             9.72           0
202892             9.28           0
202869             8.96           0
200997             9.38           0
200480             8.76           0
200881             10.36          0
201075             11.76          0
201064             10.89          0
201082             12.04          0
201067             10.78          0
201054             11.27          0
200841             10.51          0
200941             10.74          0
200894             11.56          0
200760             8              0
200488             8              0
201069             10.5           0
201036             10.87          0
200755             8.19           0
200764             7.86           0
200483             8.67           0
203007             11.46          0
203005             11.89          0
200803             12.06          0
197232             9.43           0
197222             8.84           0
197279             8.39           0
197175             7.14           0
197073             9.22           0
202975             9.64           0
202880             8.3            0
583926             8.55           0
455725             8.34           0
455727             7.76           0
1125324            10.78          0
261280             7.5            0
215627             3.24           0
1725412            10.7           0
1670792            8.06           0
1670779            10.63          0
1412255            8.67           0
1460250            12.99          0
1462649            13.11          0
236153             12.72          0
1211439            13.09          0
227845             12.15          0
1225183            12.89          0
271242             2.37           0
227930             13.27          0
227979             11.78          0
227997             13.3           0
1412194            11.13          0
1426365            11.18          0
1318726            12.29          0
1902683            11.87          0
1774526            13.56          0
1125328            9.03           0
200780             7.57           0
1738551            11.3           0
1738573            10.93          0
1715798            8.42           0
1715810            8.7            0
202830             11.62          0
211242             6.86           0
1426333            10.07          0
252935             5.76           0
252103             7.5            0
254093             9.03           0
253008             7.95           0
252944             3.81           0
224347             5.6            0
251022             10.16          0
251958             8.85           0
218741             5.55           0
217557             11.11          0
227859             10.41          0
227871             9.06           0
227891             10.96          0
227923             11.01          0
224476             11.49          0
218051             9.91           0
261274             8.14           0
259352             9.33           0
203065             10.67          0
201030             11.46          0
740967             8.14           0
202965             10.57          0
269463             5.47           0
196936             5.67           0
271642             6.72           0
1319676            11.2           0
1319456            12.05          0
678919             11.54          0
259307             9              0
261330             10.53          0
201027             12.07          0
271613             11.35          0
215637             11.59          0
215663             7.36           0
215611             7.2            0
211164             10.87          0
227888             13.61          0
218933             12.69          0
244880             13.86          0
236084             11.96          0
228078             13.5           0
251501             10.89          0
277289             6.09           0
277274             5.86           0
624621             13.22          0
1902701            15.29          0
1200763            10.71          0
1290551            10.31          0
269540             6.85           0
200804             11.85          0
202907             12.01          0
202895             9.8            0
201041             11.36          0
203014             12.38          0
224473             12.4           0
218772             6.47           0
2092779            13.9           0
708138             8.82           0
252113             11.11          0
251632             11.98          0
251716             12.11          0
1902734            12.14          0
1578172            12.23          0
501082             22.92          0
259374             11.51          0
477586             10.85          0
322681             10.51          0
1774491            12.88          0
251545             10.75          0
1578168            12.53          0
177193             11.54          0
161081             16.53          0
2092788            14.12          0
1888107            14.06          0
251057             12.45          0
227996             13.74          0
218888             11.57          0
161245             18.11          0
202808             10.47          0
1901267            7.74           0
1020690            6.28           0
161264             14.68          0
254205             5.94           0
235953             11.86          0
1626968            11.23          0
583924             9.24           0
259329             11.03          0
1036793            11.5           0
228013             11.33          0
458758             6.34           0
477588             10.4           0
235951             12.9           0
271669             9.45           0
616529             20.33          0
616503             10.73          0
271652             9.1            0
196819             10.45          0
201139             11.41          0
227850             12.26          0
211131             12.33          0
202993             11             0
271645             6.51           0
1036771            10.5           0
215625             3.37           0
196879             6.79           0
203003             12.02          0
253077             7.37           0
253023             12.82          0
251643             11.74          0
1319475            11.09          0
212164             9.69           0
455718             10.25          0
1833342            12.04          0
1296541            11.52          0
217967             10.28          0
218704             4.09           0
1671279            13.71          0
740965             8.6            0
251297             6.14           0
227823             11.23          0
6768562            12.77          0
161545             10.17          0
269459             9.98           0
265038             11.44          0
269457             10.36          0
224169             6.72           0
215632             5.82           0
215666             5.9            0
211153             12.07          0
215642             8.8            0
215599             6.16           0
1020667            7.72           0
1626980            9.19           0
254144             10.95          0
253051             5.36           0
211232             7.3            0
161103             15.42          0
161108             14.58          0
251277             9.22           0
251157             11.4           0
251765             11.79          0
251730             11.38          0
1360015            10.7           0
831727             11.65          0
1125344            10.84          0
1275257            11.08          0
1319404            12.33          0
1319461            11.22          0
1319467            12.65          0
1319476            11.06          0
1275262            8.43           0
1275270            7.94           0
678943             10.37          0
261356             10.64          0
678914             11.31          0
261362             9.91           0
251111             12.84          0
1626996            11.2           0
251969             8.8            0
251092             12.75          0
251082             12.71          0
251058             12.11          0
1020660            9.24           0
1043471            14.37          0
1123016            7.98           0
269474             4.71           0
212160             10.55          0
212154             11.82          0
223835             7.6            0
1043965            4.28           0
1057439            6.76           0
757775             7.91           0
253017             11             0
253020             10.13          0
252999             4.58           0
254080             6.62           0
1070012            10.66          0
168468             7.13           0
1125330            10.5           0
1036803            9.54           0
1043921            9.95           0
1069094            20.01          0
501106             17.73          0
501085             21.93          0
501043             16.25          0
501018             18.83          0
616588             20.51          0
616600             19.23          0
228037             12.56          0
202867             9.01           0
197274             8.61           0
201076             11.45          0
200921             11.88          0
200485             8.32           0
200963             9.53           0
203078             11.39          0
200892             12.3           0
197236             9.04           0
161619             15.16          0
161262             14.73          0
1891250            14.35          0
1902723            14.43          0
1902729            13.53          0
1891259            13.41          0
1070002            11.74          0
757761             10.14          0
251945             9.98           0
757765             11.03          0
254148             9.71           0
254138             11.72          0
254103             9.78           0
1057429            6.97           0
1833374            11.19          0
227807             11.82          0
228003             13.15          0
227898             13.69          0
224474             12.03          0
218894             8.45           0
2092773            13.87          0
1348625            10.75          0
218134             9.59           0
218747             5.13           0
218789             5.59           0
227830             13.83          0
343771             12.44          0
261323             9.45           0
259376             11.15          0
259350             9.85           0
458752             6.8            0
261171             10.7           0
261198             10.14          0
261325             8.7            0
598799             10.87          0
192570             6.1            0
202876             8.42           0
197197             8.5            0
197071             10.19          0
202848             10.32          0
203045             11.97          0
202806             12             0
202959             11.17          0
202961             10.94          0
1318727            11.72          0
1200757            11.79          0
1578127            13.95          0
1578134            13.76          0
1578160            13.01          0
616598             19.52          0
616490             10.2           0
501112             16.72          0
501121             15.7           0
753932             12.45          0
236151             13.2           0
236009             12.44          0
252174             12.36          0
235976             10.33          0
236052             11.58          0
236035             13.1           0
236078             11.72          0
1122981            13.34          0
1122967            11.49          0
477590             9.97           0
236008             12.64          0
501039             16.67          0
228068             12.66          0
227853             11.79          0
218687             6.56           0
322710             8.81           0
259332             10.37          0
261316             8.29           0
224466             9.25           0
322576             9.52           0
1015892            7.59           0
1670775            9.99           0
252262             11.4           0
343726             13.16          0
227843             12.53          0
218710             3.48           0
271680             7.66           0
265043             10.2           0
215590             10.15          0
177191             11.73          0
196893             6.5            0
1888105            13.64          0
1225179            13.49          0
203067             10.45          0
200490             7.71           0
203061             11.99          0
197335             11.77          0
203038             12.58          0
1920984            12.74          0
1578170            12.35          0
1412232            9.38           0
809823             7.75           0
1715756            7              0
202967             10.42          0
200493             7.52           0
202861             9.68           0
200849             10.2           0
200837             11.07          0
1043913            8.34           0
197199             8.27           0
271260             1.1            0
254210             5.35           0
252115             9.79           0
251761             12.33          0
251046             10.87          0
251569             10.75          0
252948             2.95           0
252941             4.57           0
161626             14.66          0
1902719            15.33          0
253036             6.02           0
269476             4.68           0
678911             11.57          0
261193             10.46          0
271606             7.35           0
215678             6.29           0
473576             11.25          0
473571             12.63          0
211195             8.73           0
211276             10.06          0
741042             10.76          0
1729932            14.18          0
1319401            12.07          0
2031738            5.63           0
1626978            10.51          0
1211438            13.34          0
252150             12.07          0
261277             7.91           0
253038             5.91           0
757769             10.47          0
809837             5.77           0
1785750            19.66          0
1578142            13.4           0
343737             12.19          0
1070171            12.36          0
235994             9.07           0
1122974            9.5            0
1492182            22.26          0
1319463            11.87          0
261353             10.81          0
1123006            12.9           0
251030             9.41           0
271250             2.08           0
227945             13.6           0
1036773            9.95           0
1055819            10.05          0
831525             11.39          0
251746             10.74          0
218694             4.41           0
678940             10.57          0
1036765            11.13          0
501104             17.99          0
501016             19.2           0
228048             12.05          0
251931             12.8           0
218893             8.83           0
218795             5.44           0
277280             5.95           0
259312             10.14          0
259401             9.56           0
261143             7.32           0
477509             10.27          0
322578             9.18           0
455731             7.62           0
1670784            9.11           0
224478             10.34          0
583934             10.19          0
2092763            13.83          0
161612             16.49          0
584021             8.13           0
271604             7.81           0
202819             12.69          0
202883             10.61          0
197075             10.37          0
616521             18.51          0
200953             9.83           0
1020677            10.09          0
1015899            10.34          0
1126500            7.81           0
197215             10.5           0
202981             8.92           0
202910             11.5           0
1318723            10.08          0
809813             9.04           0
271620             9.58           0
215646             5.76           0
215656             7.31           0
211205             8.16           0
224034             7.15           0
269450             10.53          0
200911             11.1           0
202857             10.04          0
254164             12.4           0
1902711            14.49          0
1670778            11.12          0
1626991            11.85          0
1296543            12.93          0
1043950            5.7            0
1411802            11.61          0
251141             12.53          0
251014             12.13          0
252123             10.62          0
1020688            6.46           0
261145             7.04           0
1891295            17.05          0
253058             6.41           0
251541             9.45           0
254133             11.48          0
1785762            17.47          0
1578162            12.92          0
227835             13.62          0
753950             10.91          0
236164             12.05          0
227806             12.42          0
343723             14.11          0
252229             12.44          0
218818             7.25           0
254105             9.58           0
252178             10.7           0
236016             11.28          0
501119             15.93          0
1319479            9.44           0
678990             9.93           0
223138             10.28          0
223194             9.85           0
251096             11.46          0
757786             9.76           0
254084             6.51           0
616612             17.56          0
215674             7.1            0
4284503            11.84          0
4284504            11.42          0
4284505            11.94          0
4284506            11.53          0
4284507            10.92          0
4284508            10.65          0
4284509            10.48          0
4284510            10.09          0
4284511            9.55           0
161260             15.58          0
176844             10.29          0
4236546            10.16          0
4236547            10.45          0
4236548            10.91          0
4236549            11.37          0
4236555            11.06          0
4236556            10.39          0
4236557            9.86           0
4236558            9.26           0
4236559            8.91           0
4236560            8.64           0
4236561            8.2            0
4236562            7.43           0
4236563            6.8            0
4236564            6.34           0
1125340            6.6            0
215644             6.23           0
254086             6.31           0
4236565            5.92           0
4236566            5.46           0
491941             13.68          0
227834             13.89          0
1015885            8.03           0
200948             10.35          0
254201             6.29           0
253026             8.81           0
251565             10.92          0
254100             7.16           0
1902706            13.9           0
253024             11.75          0
217539             2.77           0
254076             6.72           0
254137             12.01          0
228067             13.35          0
4236567            5.06           0
4284512            9.32           0
218906             5.15           0
4179289            23.83          0
1715796            11.35          0
236040             11.54          0
354689             11.62          0
1412116            10.97          0
678984             9.97           0
251010             13.22          0
1902698            14.81          0
1122997            8.5            0
271254             1.23           0
1036778            9.19           0
501047             15.83          0
228001             12.49          0
322677             8.11           0
261335             9.28           0
322673             9.01           0
2031742            4.72           0
1043474            14.17          0
218847             10.47          0
4242516            10.6           0
4242517            10.9           0
4242534            12.11          0
4242535            12.2           0
4242536            12.6           0
4242537            13.7           0
4242538            10.74          0
4242539            12.46          0
4242540            12.26          0
4242541            12.26          0
4242542            12.73          0
4242543            12.3           0
4242544            12.43          0
4242545            13.32          0
4242546            13.64          0
4242547            13.65          0
4242548            17.25          0
4242549            17.25          0
740963             9.32           0
2092761            13.81          0
197170             7.31           0
252939             4.87           0
235991             9.3            0
4284502            11.97          0
161644             16.96          0
261230             5.74           0
277276             5.87           0
1043946            6.26           0
252957             2.07           0
757773             8.85           0
1785746            19.83          0
501125             15.25          0
236018             10.94          0
1319465            10.68          0
1626994            11.63          0
271219             1.01           0
202951             12.68          0
196909             6.27           0
203075             11.95          0
168466             7.65           0
197162             8.63           0
202963             10.82          0
265045             9.82           0
473572             12.31          0
211279             9.22           0
322682             9.57           0
1460237            13.29          0
1671286            13.38          0
1626984            10.05          0
161468             15.19          0
161547             10.02          0
1064057            8.84           0
1036769            10.7           0
218785             5.9            0
177195             11.35          0
261295             9.92           0
322706             9.19           0
236051             12.42          0
809825             7.46           0
202900             10.14          0
202969             10.31          0
269581             9.52           0
215601             6.06           0
200744             11.08          0
227867             9.39           0
1319392            11.36          0
1424736            13.5           0
176851             11.13          0
809817             8.27           0
252946             3.38           0
1902708            13.75          0
202898             10.46          0
202973             9.94           0
269585             9.42           0
215596             7.42           0
201107             9.39           0
354691             11.2           0
251028             9.42           0
757787             9.59           0
501051             15.43          0
261271             9.55           0
1902732            12.44          0
1901246            7              0
253003             4.1            0
254142             11.36          0
1785741            20.19          0
235967             10.78          0
1319406            11.08          0
252084             7.84           0
1043938            6.94           0
343768             12.74          0
259440             10.73          0
583935             9.87           0
227975             12.78          0
261157             5.19           0
202865             9.13           0
616511             12.73          0
202995             10.68          0
161076             11.25          0
161068             16.87          0
259407             10.66          0
200918             12.07          0
251676             11.65          0
261176             10.11          0
201011             10.25          0
1901278            6.74           0
253001             4.29           0
201053             12.01          0
757801             11.34          0
1577971            13.93          0
236005             11.06          0
1319402            11.57          0
1626970            10.74          0
1036776            9.76           0
227881             11.72          0
218708             3.91           0
259383             10.5           0
322685             9.3            0
218859             12.19          0
1901266            8.1            0
218718             10.93          0
1901245            7.52           0
202835             11.48          0
1367891            9.4            0
161273             12.36          0
1043967            3.79           0
4507634            11.1           0
4507635            10.66          0
4507636            9.52           0
4507637            9.16           0
4507638            9.01           0
4507639            8.82           0
4507640            8.54           0
4507695            9.8            0
4507696            9.72           0
4596219            9.86           0
4236983            11.87          0
4236984            10.41          0
4551141            12.08          0
4551142            11.83          0
4551143            12.29          0
4551144            12.68          0
4551145            12.09          0
4551146            11.89          0
4551147            11.67          0
4551148            12.69          0
4551149            12.37          0
4551150            12.17          0
4551151            11.58          0
4551152            11             0
4551153            10.86          0
4551154            10.57          0
4551155            9.63           0
4551156            9.47           0
4551157            12.7           0
4551158            12.33          0
4551159            12.06          0
4551160            11.35          0
4551161            10.67          0
4551162            10.22          0
4551163            9.87           0
4551164            9.49           0
4551165            9.3            0
4551166            9.02           0
202986             12.03          0
4319504            10.05          0
4319505            9.71           0
4319506            9.4            0
4515094            12.71          0
4515095            12.66          0
4515096            12.29          0
4319507            10.01          0
4515097            11.7           0
4515098            12.56          0
4515099            12.01          0
4515100            12.21          0
4515101            12.39          0
4515102            11.39          0
4515103            11.68          0
4515104            10.74          0
4515105            12.46          0
4515106            12.08          0
4515107            11.51          0
4515108            10.98          0
4515109            10.86          0
4515110            10.55          0
4515111            10.19          0
4242466            2.46           0
4242467            10.53          0
4242468            10.55          0
4242469            10.55          0
4242470            3.82           0
4242480            17.67          0
4586757            13.72          0
4586758            13.56          0
4586759            13.15          0
4242481            17.75          0
4555768            12.16          0
4604648            15.3           0
4604721            16.22          0
4604722            16.34          0
4604723            16.51          0
4604724            16.8           0
4604725            17.28          0
4604726            17.74          0
4516316            9.53           0
4516317            8.14           0
4610375            12.74          0
4610376            12.72          0
4610377            12.33          0
4610378            11.75          0
4610379            11.55          0
4610380            11.18          0
4587244            11.89          0
4587245            11.66          0
4587246            11.31          0
4587247            10.32          0
4587248            11.09          0
4587249            11.46          0
4587250            11.53          0
4587251            11.75          0
4507616            11.92          0
4507617            11.97          0
4507618            11.96          0
4507619            11.89          0
4507620            12.09          0
4507621            12.38          0
4507622            12.57          0
4507623            12.29          0
4507624            11.91          0
4507625            11.34          0
4507626            11.03          0
4507627            10.95          0
4507628            11.15          0
4507629            10.65          0
4507630            10.18          0
4507631            11.26          0
4507632            10.97          0
4507633            11.68          0
4596210            12.7           0
4596211            12.19          0
4596212            12.58          0
4596213            11.99          0
4596214            11.38          0
4596215            10.57          0
4596216            10.51          0
4596217            10.25          0
4596218            10.07          0
4319508            7.96           0
4319509            6.29           0
218692             4.56           0
271582             6.25           0
4284821            11.52          0
4284822            11.74          0
4284823            11.22          0
4284824            11.62          0
4284825            11.8           0
4284826            11.02          0
4284827            10.42          0
4253324            11.95          0
4253325            11.74          0
4253326            11.25          0
4253327            11.33          0
4253328            11.71          0
4253329            11.51          0
4253330            11.65          0
4253331            11.58          0
4253332            11.21          0
4253333            10.64          0
4253334            10.02          0
4253335            9.72           0
4253336            11.1           0
4253337            10.98          0
4253338            10.76          0
4253339            11.28          0
4253340            10.69          0
4253341            10.46          0
4253342            10.25          0
4253343            9.84           0
4253344            9.72           0
4532329            11.92          0
4532330            11.55          0
4236568            4.75           0
4236569            4.41           0
4236570            4.15           0
4236571            3.87           0
4236612            11.06          0
4236613            11.12          0
4236614            11.17          0
4236615            11.15          0
4236616            11.51          0
4236617            11.09          0
4236618            10.7           0
4236619            10.46          0
4236620            9.63           0
4236621            9.39           0
4236622            10.64          0
4236623            10             0
4236624            9.83           0
4236625            9.16           0
4236626            8.96           0
4236627            10.68          0
4236628            10.1           0
4236629            9.23           0
4236630            8.67           0
4236631            8.39           0
4236632            7.93           0
4236633            7.73           0
4236675            11.35          0
4236676            11.17          0
4236677            10.64          0
4236678            10.26          0
4236679            10.1           0
4236680            11.44          0
4236681            11.15          0
4236682            10.43          0
4551167            12.9           0
4551168            12.42          0
4551169            12.61          0
501049             15.63          0
501033             17.11          0
4236683            9.98           0
4236684            9.71           0
4236685            9.45           0
4236686            9.26           0
4284513            8.27           0
4284514            7.95           0
4284515            7.62           0
4284516            7.24           0
4284517            7.13           0
1036782            8.73           0
4236687            9.11           0
4236688            8.93           0
4236689            8.71           0
4236690            8.57           0
4236691            8.24           0
4236692            7.99           0
4236693            7.68           0
4236694            6.9            0
4236695            7.31           0
4236696            6.3            0
4236697            5.9            0
4243846            6.61           0
4243847            6.24           0
4243853            10.66          0
4243854            10.24          0
4243855            9.48           0
4243856            9.05           0
4243857            8.83           0
4243858            8.47           0
4243859            7.8            0
4243860            7.85           0
4243861            7.99           0
4243862            8.56           0
4243863            8.99           0
4243864            9.23           0
583921             9.06           0
4532331            10.98          0
4532332            10.86          0
4532333            10.59          0
4532334            10.97          0
4532335            11.15          0
4532336            11.32          0
4532337            11.68          0
4532338            12.12          0
4532339            12.54          0
4532340            12.5           0
4532341            12.43          0
4309051            8.26           0
4309052            6.98           0
252950             2.56           0
616606             18.49          0
168464             7.93           0
812361             9.57           0
265029             1.98           0
271231             0.77           0
4250726            9.81           0
4250727            10.12          0
4250728            9.45           0
4250729            9.15           0
4250730            8.9            0
4250731            8.57           0
4250732            7.84           0
4250733            7.58           0
4250734            7.43           0
4250735            5.74           0
215651             7.87           0
197207             10.33          0
4327323            8.73           0
4327504            10.49          0
4327505            9.25           0
4956154            7.63           0
4956155            8.03           0
5257414            15.47          0
5257472            13.79          0
5257473            14.5           0
5257474            15.38          0
5257475            16.93          0
5257476            17.34          0
5257477            17.75          0
5257478            18.35          0
5257479            18.52          0
5257480            18.6           0
5257481            18.98          0
4865971            11.39          0
4865972            10.47          0
4865973            10.8           0
5214452            24.36          0
5276632            17.62          0
5278823            8.97           0
5278824            14.06          0
4956156            8.28           0
4956157            8.78           0
4956158            10.01          0
4956159            10.98          0
4910461            10.12          0
4910462            10.36          0
4910463            10.71          0
4910464            11.1           0
4910465            11.49          0
4910466            11.63          0
4736242            10.93          0
4865974            11.61          0
4865975            11.66          0
4865976            11.23          0
4865977            11.02          0
4865978            10.44          0
4865979            10.1           0
4865980            9.97           0
4865981            9.64           0
4865982            9.49           0
4865983            9.34           0
4865984            9.11           0
4865985            11.29          0
4865986            11.45          0
4798829            20.55          0
4798830            20.22          0
5140160            9.91           0
5278825            14.67          0
4878538            12.28          0
4878539            12.64          0
4716143            22.1           0
4716157            22.91          0
4852530            6.15           0
4852531            5.99           0
4852532            5.57           0
4873278            15.61          0
4873408            20.5           0
4873409            15.25          0
4873410            19.89          0
4873411            19.6           0
4873412            18.58          0
4873413            17.59          0
4873414            16.7           0
4873415            16.55          0
4873416            16.93          0
5162531            12.88          0
5246212            7.36           0
5246213            8.8            0
5246274            15.46          0
5246275            15.46          0
5246276            15.45          0
5246277            15.45          0
5246278            15.46          0
5246279            15.48          0
5246280            15.49          0
5246281            15.47          0
5246282            15.38          0
5246283            15.48          0
5246284            15.49          0
5246310            13.5           0
5246311            13.52          0
5246312            13.52          0
4873417            16.08          0
4873418            15.91          0
6775246            11.94          0
6775247            11.34          0
6775248            10.73          0
4929170            7.09           0
4936528            12.87          0
6775249            10.28          0
6775250            9.71           0
4873419            14.75          0
4873420            16.18          0
4873453            18.78          0
4873421            16.62          0
4873452            19.81          0
4873651            19.17          0
4873652            19.17          0
4873653            19.17          0
4873654            15.11          0
4873655            15.11          0
4873656            17.85          0
4873657            19.16          0
4873658            19.17          0
4873659            19.17          0
4873660            19.17          0
4873661            19.17          0
4873662            19.51          0
4873663            19.51          0
4715430            11.37          0
4715431            11             0
4715432            10.33          0
4715433            9.77           0
4715434            9.3            0
4715435            9.19           0
4715436            10.85          0
4715437            12.03          0
4715438            11.5           0
4715439            12.54          0
4715440            12.17          0
4715441            11.85          0
4715442            11.26          0
4715443            10.99          0
4715444            10.39          0
4715445            10.06          0
4715446            9.69           0
4715447            11.73          0
4715448            11.78          0
4715449            11.83          0
5188950            9.88           0
4707362            11.84          0
4707363            11.08          0
5197450            11.85          0
5197451            8.06           0
5197452            10.82          0
5199350            11.26          0
5199351            11.64          0
5199352            8.54           0
5199353            8.78           0
5199354            11.55          0
5199355            12.04          0
4747450            10.63          0
4747451            10.91          0
4747452            11.27          0
[...]
7340796.1          268984.802     5789735.516
7340796.1          268984.87      5789735.523
7340796.1          268984.938     5789735.527
7340796.1          268985.007     5789735.525
7340796.1          268985.075     5789735.519
7340792.1          269100.948     5789703.26
7340792.1          269101.563     5789707.221
7340792.1          269102.314     5789711.159
7340792.1          269103.202     5789715.068
7340792.1          269104.224     5789718.944
7340792.1          269105.379     5789722.783
7340792.1          269106.667     5789726.579
7420534.1          268463.205     5789195.496
7420534.1          268463.208     5789195.518
7420534.1          268463.209     5789195.54
7420534.1          268463.209     5789195.562
7420534.1          268463.207     5789195.583
7420534.1          268463.204     5789195.605
7420534.1          268463.199     5789195.626
7420534.1          268463.192     5789195.647
7420534.1          268463.184     5789195.668
7420534.1          268463.175     5789195.688
7420534.1          268463.165     5789195.707
7420534.1          268463.153     5789195.725
7420534.1          268463.14      5789195.743
7420534.1          268463.125     5789195.759
7420534.1          268463.11      5789195.775
7420534.1          268463.093     5789195.789
7420534.1          268463.076     5789195.802
7420534.1          268463.058     5789195.814
7420534.1          268463.039     5789195.825
7420534.1          268463.019     5789195.834
7420534.1          268462.998     5789195.842
7420534.1          268462.977     5789195.848
7420533.1          268460.265     5789140.5
7420533.1          268457.292     5789144.417
7390839.1          269282.489     5790092.77
7390843.1          269142.241     5790044.755
7390860.1          269313.561     5789926.85
7390860.1          269313.646     5789926.902
7390860.1          269313.729     5789926.956
7390860.1          269313.81      5789927.013
7390860.1          269313.889     5789927.074
7390860.1          269313.966     5789927.137
7390860.1          269314.04      5789927.203
7390860.1          269314.112     5789927.271
7390860.1          269317.005     5789930.02
7390860.1          269317.059     5789930.107
7390860.1          269317.107     5789930.198
7390860.1          269317.151     5789930.291
7390860.1          269317.189     5789930.387
7390860.1          269317.222     5789930.484
7390860.1          269317.25      5789930.584
7390860.1          269317.272     5789930.684
7390838.1          269126.666     5789992.668
7390838.1          269126.696     5789992.731
7390838.1          269126.73      5789992.793
7390838.1          269126.768     5789992.853
7390838.1          269126.809     5789992.91
7390838.1          269126.853     5789992.964
7390838.1          269126.901     5789993.016
7390838.1          269126.952     5789993.064
7390838.1          269127.006     5789993.11
7390838.1          269127.063     5789993.152
7390838.1          269127.121     5789993.19
7390838.1          269127.183     5789993.225
7390840.1          269322.113     5790082.874
7390840.1          269322.121     5790082.961
7390840.1          269322.123     5790083.049
7390840.1          269322.12      5790083.137
7390840.1          269322.112     5790083.224
7390840.1          269322.098     5790083.311
7390840.1          269322.079     5790083.397
7390840.1          269322.054     5790083.481
7390840.1          269322.025     5790083.564
7390840.1          269321.99      5790083.645
7390840.1          269321.95      5790083.723
7390840.1          269321.906     5790083.799
7390840.1          269321.857     5790083.872
7390840.1          269321.803     5790083.941
7390837.1          269188.77      5789855.152
7390837.1          269188.559     5789855.919
7390837.1          269188.336     5789856.682
7390837.1          269188.098     5789857.442
7390837.1          269187.847     5789858.197
7390837.1          269187.583     5789858.947
7390837.1          269187.306     5789859.693
7390837.1          269187.015     5789860.433
7390857.1          269157.817     5789717.699
7390851.1          269295.463     5789863.019
7390851.1          269295.57      5789863.072
7390851.1          269295.673     5789863.131
7390851.1          269295.773     5789863.197
7390851.1          269295.868     5789863.268
7390851.1          269295.959     5789863.345
7390851.1          269296.046     5789863.428
7390851.1          269296.127     5789863.515
7390851.1          269296.203     5789863.607
7390851.1          269296.273     5789863.703
7390851.1          269298.968     5789868.483
7390851.1          269298.987     5789868.559
7390851.1          269299.002     5789868.635
7390851.1          269299.011     5789868.713
7390851.1          269299.017     5789868.791
7390851.1          269299.017     5789868.869
7390851.1          269299.013     5789868.946
7390851.1          269299.004     5789869.024
7390851.1          269298.99      5789869.101
7390851.1          269298.972     5789869.177
7390856.1          269298.916     5789812.317
7371066.1          269614.01      5790215.503
7371068.1          269614.682     5790222.253
7371067.1          269614.354     5790218.878
7371060.1          269614.17      5790225.02
7271607.1          269643.685     5790228.096
7349533.1          267586.228     5789215.273
7349546.1          267698.117     5789199.299
7349536.1          267573.933     5789293.857
7349537.1          267688.806     5789277.42
7349540.1          267703.236     5789170.062
7349541.1          267707.871     5789167.263
7349541.1          267710.637     5789166.943
7349541.1          267713.413     5789166.723
7349541.1          267716.195     5789166.602
7349541.1          267718.98      5789166.581
7349541.1          267721.764     5789166.659
7349541.1          267724.543     5789166.836
7349541.1          267727.314     5789167.113
7349541.1          267727.355     5789167.113
7349541.1          267727.405     5789167.123
7349541.1          267727.446     5789167.123
7349541.1          267727.496     5789167.123
7349541.1          267727.537     5789167.123
7349541.1          267727.578     5789167.123
7349541.1          267727.628     5789167.113
7349541.1          267727.669     5789167.113
7349541.1          267727.71      5789167.103
7349541.1          267727.76      5789167.093
7349541.1          267727.801     5789167.083
7349541.1          267727.842     5789167.073
7349541.1          267727.883     5789167.053
7349541.1          267727.924     5789167.043
7349541.1          267727.966     5789167.023
7349541.1          267728.007     5789167.013
7349541.1          267728.048     5789166.993
7349541.1          267728.089     5789166.973
7349541.1          267728.131     5789166.953
7349541.1          267728.164     5789166.923
7349541.1          267728.205     5789166.903
7349541.1          267728.238     5789166.873
7349541.1          267728.271     5789166.853
7349541.1          267728.312     5789166.823
7349541.1          267728.345     5789166.793
7349541.1          267728.378     5789166.763
7349541.1          267728.403     5789166.733
7349541.1          267728.436     5789166.693
7349541.1          267728.469     5789166.663
7349541.1          267728.493     5789166.633
7349541.1          267728.518     5789166.593
7349541.1          267728.543     5789166.553
7349541.1          267728.568     5789166.523
7349541.1          267728.592     5789166.483
7349541.1          267728.617     5789166.443
7349541.1          267728.634     5789166.403
7349541.1          267728.65      5789166.363
7349541.1          267728.675     5789166.323
7349541.1          267728.691     5789166.283
7349541.1          267728.7       5789166.243
7349541.1          267728.716     5789166.193
7349541.1          267728.724     5789166.153
7349541.1          267728.741     5789166.113
7349541.1          267728.749     5789166.063
7349541.1          267728.757     5789166.023
7349541.1          267728.757     5789165.983
7349542.1          267734.397     5789146.317
7349542.1          267742.313     5789150.696
7349543.1          267707.824     5789093.015
7349543.1          267709.975     5789093.546
7349543.1          267712.1       5789094.17
7349543.1          267714.197     5789094.885
7349543.1          267716.26      5789095.691
7349543.1          267718.287     5789096.585
7349543.1          267720.272     5789097.567
7349543.1          267733.26      5789104.406
7349543.1          267735.742     5789109.571
7349545.1          267700.996     5789126.226
7349545.1          267701.04      5789126.214
7349545.1          267701.083     5789126.198
7349545.1          267701.125     5789126.18
7349545.1          267701.165     5789126.159
7349545.1          267701.204     5789126.136
7349545.1          267701.241     5789126.11
7349545.1          267701.277     5789126.082
7349545.1          267701.31      5789126.051
7349545.1          267701.342     5789126.018
7349545.1          267701.371     5789125.983
7349545.1          267701.398     5789125.946
7349545.1          267701.422     5789125.907
7349545.1          267701.443     5789125.867
7349545.1          267701.462     5789125.826
7349545.1          267701.478     5789125.783
7349544.1          267603.058     5789140.188
6790612.1          270959.17      5787016.71
6790612.1          270957         5787017.21
2092779.1          274295.867     5788089.558
12729-RM.1         272856.324     5788510.732
12729-RM.1         272844.328     5788520.396
6790536.1          270962.387     5787023.622
616488.1           272111.044     5787411.213
616488.1           272092.946     5787375.766
616488.1           272074.414     5787340.43
616488.1           272057.458     5787304.201
616488.1           272040.737     5787267.864
616486.1           272149.159     5787480.228
616486.1           272128.772     5787446.512
4242467.1          270016.635     5787551.002
4242538.1          269997.56      5787559.45
4242538.1          269994.379     5787557.345
4242538.1          269991.226     5787555.198
4242538.1          269988.101     5787553.01
4242538.1          269985.006     5787550.78
4242538.1          269981.94      5787548.51
4242538.1          269978.905     5787546.2
4242538.1          269975.9       5787543.85
4242538.1          269974.107     5787542.576
4242538.1          269972.29      5787541.337
4242538.1          269970.45      5787540.132
4242538.1          269968.587     5787538.963
4242538.1          269966.702     5787537.829
4242538.1          269964.796     5787536.731
4242538.1          269962.87      5787535.67
4242538.1          269929.26      5787517.55
4242538.1          269921.085     5787512.987
4242538.1          269913.238     5787507.881
4242538.1          269905.755     5787502.255
4242538.1          269898.671     5787496.135
4242538.1          269892.017     5787489.549
4242538.1          269885.825     5787482.527
4242538.1          269880.122     5787475.102
4242538.1          269874.936     5787467.308
4242468.1          270018.75      5787552.24
54534-RM.1         270016.143     5787554.836
54534-RM2.2        270017.018     5787555.321
2092763.1          274357.045     5788098.049
2092763.1          274354.085     5788098.576
4873656.1          269347.129     5784641.042
4873656.1          269337.401     5784639.234
4873656.1          269327.586     5784637.982
4873656.1          269317.715     5784637.289
4873656.1          269307.821     5784637.157
4873656.1          269297.936     5784637.588
4873656.1          269288.091     5784638.579
4873656.1          269238.886     5784644.669
4873658.1          269418.785     5784674.929
4873658.1          269410.773     5784668.932
4873658.1          269402.429     5784663.404
4873658.1          269393.782     5784658.365
4873658.1          269384.859     5784653.831
4873658.1          269375.691     5784649.817
4873658.1          269366.307     5784646.336
4873662.1          269486.049     5784739.801
5347358.1          269861.78      5789100.41
5347358.1          269863.25      5789100.97
7001209.1          268363.543     5785350.151
5246276.1          269454.82      5786265.34
5246274.1          269457.55      5786265.14
5246282.1          269452.9       5786249.57
5246283.1          269458.201     5786260.021
5257478.1          269332.42      5785602.1
5257478.1          269320.01      5785593.98
5246312.2          269413.03      5786254.73
5410720.1          267262.99      5792916.063
5410720.1          267262.927     5792915.462
5410720.1          267262.825     5792914.866
5410720.1          267262.682     5792914.279
5410720.1          267262.501     5792913.702
5410720.1          267262.281     5792913.139
5410720.1          267262.023     5792912.592
5410720.1          267261.73      5792912.064
5410720.1          267261.402     5792911.556
5410720.1          267261.041     5792911.072
5410720.1          267260.647     5792910.613
5410720.1          267260.224     5792910.181
5410720.1          267259.773     5792909.779
5410720.1          267259.296     5792909.408
5410720.1          267258.795     5792909.07
5410720.1          267258.273     5792908.766
5410720.1          267257.731     5792908.498
5410720.1          267257.173     5792908.267
5410720.1          267256.6       5792908.073
5410720.1          267256.016     5792907.919
5410720.1          267255.422     5792907.804
5410720.1          267254.822     5792907.73
5410720.1          267254.219     5792907.696
5410720.1          267253.615     5792907.702
7282143.1          268259.967     5788820.584
7371055.1          269639.604     5790208.159
7371055.1          269637.534     5790192.231
7371055.1          269637.429     5790190.911
7371055.1          269637.413     5790189.587
7371055.1          269637.488     5790188.266
7371055.1          269637.651     5790186.952
7371055.1          269637.903     5790185.653
7371055.1          269638.243     5790184.373
7371055.1          269638.668     5790183.12
7371055.1          269639.177     5790181.898
7371055.1          269639.768     5790180.713
7298115.1          269756.899     5789956.625
7298115.1          269771.029     5789952.116
7298118.1          269945.023     5789681.952
7298118.1          269941.76      5789653.024
7298119.1          269932.784     5789573.756
7298119.1          269928.772     5789537.958
7298116.1          269793.848     5789908.592
7298116.1          269795.102     5789906.339
7298116.1          269796.502     5789904.173
7298116.1          269798.041     5789902.104
7298116.1          269799.713     5789900.14
7298116.1          269801.511     5789898.291
7298116.1          269803.427     5789896.565
7298116.1          269805.452     5789894.968
7298116.1          269807.578     5789893.509
7298116.1          269809.796     5789892.192
7298116.1          269812.095     5789891.024
7298116.1          269814.466     5789890.01
7298116.1          269816.899     5789889.155
7298116.1          269819.383     5789888.462
7298116.1          269821.907     5789887.933
7298116.1          269824.461     5789887.572
7298116.1          269888.84      5789880.52
7298116.1          269918.29      5789877.209
7298116.1          269925.904     5789883.438
7298116.1          269959.282     5789879.787
7388326.1          269649.536     5788643.639
7388326.1          269654.146     5788647.487
112850-RM.1        270373.071     5789743.074
7148533.1          270374.694     5789737.186
112850-RM2.2       270371.194     5789741.578
7298121.1          269903.933     5789317.903
7298121.1          269903.323     5789313.581
7298121.1          269901.97      5789306.896
7298121.1          269901.201     5789302.603
7298105.1          269944.913     5789746.165
7298105.1          269951.31      5789737.973
7388328.1          269106.103     5788716.772
7388328.1          269111.655     5788709.69
7166002.1          272794.241     5789526.215
7166000.1          272795.954     5789525.66
7166001.1          272796.741     5789526.608
7166001.1          272796.733     5789526.607
7166001.1          272796.725     5789526.606
7166001.1          272796.718     5789526.604
7166001.1          272796.71      5789526.601
7166001.1          272796.703     5789526.598
7166001.1          272796.696     5789526.595
7166001.1          272796.689     5789526.591
7166001.1          272796.682     5789526.587
7166001.1          272796.676     5789526.582
7166001.1          272796.67      5789526.577
7166001.1          272796.664     5789526.571
7166001.1          272796.659     5789526.565
7166001.1          272796.654     5789526.559
7166001.1          272796.65      5789526.553
7166001.1          272796.646     5789526.546
7166001.1          272796.642     5789526.539
7166001.1          272796.639     5789526.532
7166001.1          272796.637     5789526.524
7166001.1          272796.635     5789526.517
7166001.1          272796.633     5789526.509
7166001.1          272796.632     5789526.501
7001240.1          268359.391     5785352.082
6644544.1          267262.005     5792999.613
7002512.1          268859.839     5785485.009
7002512.1          268940.102     5785475.339
7371073.1          269603.088     5790212.503
7371073.1          269603.166     5790212.355
7371073.1          269603.369     5790212.238
6666082.1          269150.74      5784337.07
7282133.1          268253.622     5789295.701
7282134.1          268224.204     5789287.681
7282135.1          268203.735     5789249.524
7282144.1          268209.238     5789190.9
7282144.1          268229.279     5789174.625
7282144.1          268236.263     5789102.312
7282144.1          268239.245     5789075.632
7282144.1          268242.125     5789046.735
7282144.1          268243.963     5789028.07
7282136.1          268250.282     5789004.072
7282136.1          268250.348     5789003.833
7282136.1          268250.404     5789003.592
7282136.1          268250.453     5789003.349
7282136.1          268250.492     5789003.105
7282136.1          268250.523     5789002.859
7282136.1          268250.544     5789002.613
7282136.1          268250.557     5789002.366
7282137.1          268264.391     5788856.015
SP1344_RM1.1       268267.629     5789293.73
SP1344_RM1.1       268267.425     5789294.011
SP1344_RM2.1       268268.84      5789294.706
SP1344_RM2.1       268268.629     5789295.011
SP1344_PPP.1       268263.175     5789295.667
SP1344_PPP.1       268262.894     5789295.433
SP1344_ESV_INLET_MH.2 268317.415     5789276.844
7316870.2          268289.84      5789281.785
7316869.2          268284.915     5789279.656
4242537_1.1        269429.643     5786292.052
5321261.1          269824.132     5788631.111
5321261.1          269823.886     5788628.66
7298112.1          269879.626     5789110.73
7298112.1          269878.287     5789109.616
7298112.1          269878.001     5789108.149
5321263.1          269821.284     5788604.876
5321263.1          269818.271     5788557.069
5321263.1          269817.829     5788551.007
5321263.1          269813.669     5788512.778
5320778_1.1        269795.884     5788370.855
5320778_1.1        269784.763     5788334.664
5320785_1.1        269765.334     5788166.385
5320785_1.1        269753.283     5788066.811
5320785_1.1        269729.166     5787868.94
5320785_1.1        269705         5787666.935
4242537_2.1        269427.388     5786292.371
616539.2           271106.307     5785217.015
1833408.3          274355.781     5788095.784
269481.3           271510.916     5788224.488
7001203.3          268368.517     5785349.623
7001203.4          268368.685     5785351.119
624613.3           272863.967     5788521.815
252973.3           272294.348     5787677.244
200474.3           270795.489     5788612.136
252973.4           272293.77      5787676.369
269481.4           271510.463     5788223.457
200474.4           270796.426     5788611.965
624613.4           272864.569     5788521.424
1833408.4          274356.234     5788095.495

[END]
